9
E = -23.878251136536676, |proj g| = 1.0298990747011045e-07
Fe    0.19735268        0.58099059        1.58703367
Fe    1.36039106       -1.25424293        0.56066638
Co   -1.38507099        1.52500291        0.14679775
Co    0.69927352       -1.47442342       -1.74474924
Co    2.44154426        0.84930908        0.84002450
Ni    2.85855726       -0.35678923       -1.26478745
Ni    2.56496034       -2.80619851       -0.90734244
Ni    0.69793497        0.82296226       -0.89729233
Ni   -1.00941526       -0.88755183       -0.07902651
