7
E = -15.177403702070363, |proj g| = 1.1065669452403776e-08
Ni   -1.03860245       -2.30826025        1.17892205
Ni   -1.15172373        0.55225337       -1.95980830
Ni   -0.77896787        1.80532375        0.15034081
Ni    1.11951743        0.65796258       -0.96374067
Ni   -2.06387822       -0.30622152        0.17116489
Ni   -0.14081985       -1.46843358       -0.95733672
Ni    0.23676079       -0.19914406        1.18012514
